myETL/UCT_Source/20221102_1230_FO3_ME0.UCT
##C 2007.05.01
*******************************************************
	Created by Transmission Network Analyzer_FORsee (TNA_FORsee). Made by EKC Belgrade & DMS Group Novi Sad, 2012.
	63  nodes
	72  lines
	12  transformers
	12  transformer regulations
	0  tap changers
*******************************************************

##N
##ZME
0VIRPA51 Virpazar     0 0 111.34 2.75968 .395618       0       0       0       0       0       0     0       0       0       0  
0VILUS5K Vilusi KT    0 0 113.47       0       0       0       0       0       0       0       0     0       0       0       0  
0VILUS51 Vilusi       0 0 113.47 .810535 .482462       0       0       0       0       0       0     0       0       0       0  
0ULCIN51 Ulcinj       0 0 111.12 9.51414 1.79476       0       0       0       0       0       0     0       0       0       0  
0TPLJE21 TE Pljevlja  0 3    237   17.68   16.75 -207.54 -88.938    -160    -225      10    -109     0       0       0       0 C
0TIVAT51 Tivat        0 0 106.32 14.6765 1.18686       0       0       0       0       0       0     0       0       0       0  
0ROZAJ51 Rozaje       0 0    110       0       0       0       0       0       0       0       0     0       0       0       0  
0RIBAR11 Ribarevine   0 0 405.92       0       0       0       0       0       0       0       0     0       0       0       0  
0PODG551 Podgorica 5  0 0 112.12 16.4133 1.65002       0       0       0       0       0       0     0       0       0       0  
0PODG451 Podgorica 4  0 0  112.1 21.5757 1.38949       0       0       0       0       0       0     0       0       0       0  
0PODG351 Podgorica 3  0 0 112.12 19.4722 1.78511       0       0       0       0       0       0     0       0       0       0  
0PODG252 Podgorica 2  0 0 111.95       0       0       0       0       0       0       0       0     0       0       0       0  
0PODG251 Podgorica 2  0 0 111.95       0       0       0       0       0       0       0       0     0       0       0       0  
0PODG212 Podgorica 2  0 0 403.48       0       0       0       0       0       0       0       0     0       0       0       0  
0PODG211 Podgorica 2  0 0 403.48       0       0       0       0       0       0       0       0     0       0       0       0  
0PODG151 Podgorica 1  0 0 112.33 29.2951 5.58691       0       0       0       0       0       0     0       0       0       0  
0PODG121 Podgorica 1  0 0 236.09       0       0       0       0       0       0       0       0     0       0       0       0  
0PLJEV51 Pljevlja 1   0 0 113.26 12.6984 3.41583       0       0       0       0       0       0     0       0       0       0  
0PLJE251 Pljevlja 2   0 0 113.32       0       0       0       0       0       0       0       0     0       0       0       0  
0PLJE211 Pljevlja 2   0 0 408.37       0       0       0       0       0       0       0       0     0       0       0       0  
0NIKSZ52 Niksic Zelje 0 0 113.29    0.25    0.52       0       0       0       0       0       0     0       0       0       0  
0NIKSI51 Niksic 1     0 0 113.29 17.1563  5.0176       0       0       0       0       0       0     0       0       0       0  
0NIKS251 Niksic 2 - K 0 0  113.4 7.03429 2.22897       0       0       0       0       0       0     0       0       0       0  
0MOJKO51 Mojkovac     0 0 115.44 4.58338 1.22545       0       0       0       0       0       0     0       0       0       0  
0MOJKO21 Mojkovac     0 0 237.22       0       0       0       0       0       0       0       0     0       0       0       0  
0KRNOV51 VE Krnovo    0 2    117       0    0.31  -6.596 -26.577       0     -72       0     -34     0       0       0       0 W
0KOTOR51 Kotor        0 0 106.23 10.9615 1.62107       0       0       0       0       0       0     0       0       0       0  
0KAP  5T KAP T-spoj   0 0 112.07       0       0       0       0       0       0       0       0     0       0       0       0  
0KAP  51 KAP          0 0 111.48    8.37   19.28       0       0       0       0       0       0     0       0       0       0  
0HPIVA21 HE Piva      0 0 238.07       0       0       0       0       0    -114       4     -37     0       0       0       0 H
0HPERU51 HE Perucica  0 0 113.01       0       0       0       0       5    -210      12     -75     0       0       0       0 H
0HPERU21 HE Perucica  0 0 239.32       0       0       0       0       0       0       0       0     0       0       0       0  
0HNOVI51 Herceg Novi  0 0 106.36 9.32116 1.34124       0       0       0       0       0       0     0       0       0       0  
0ETREB51 EVP Trebjesi 0 0 114.79    0.82    0.44       0       0       0       0       0       0     0       0       0       0  
0DANIL51 Danilovgrad  0 0 112.39 10.2185 4.55444       0       0       0       0       0       0     0       0       0       0  
0CETIN51 Cetinje      0 0 111.49 9.61063 2.81758       0       0       0       0       0       0     0       0       0       0  
0BUDVA51 Budva        0 0 106.58 24.9047 2.61494       0       0       0       0       0       0     0       0       0       0  
0BREZN51 Brezna       0 0  115.9 1.55353 .009649       0       0       0       0       0       0     0       0       0       0  
0RIBAR51 Ribarevine   0 0 115.35 12.1677 3.77285       0       0       0       0       0       0     0       0       0       0  
0BERAN51 Berane       0 0 114.79 12.7852  2.4702       0       0       0       0       0       0     0       0       0       0  
0BAR  51 Bar          0 0 111.06 18.7774 3.06846       0       0       0       0       0       0     0       0       0       0  
0ANDRI51 Andrijevica  0 0 114.82 .337723       0       0       0       0       0       0       0     0       0       0       0  
0LASTV11 Lastva       0 0 401.08       0       0       0       0       0       0       0       0     0       0       0       0  
0HPIVA22 HE Piva      0 0 238.07       0       0       0       0       0    -228       8     -74     0       0       0       0 H
0HPERU52 HE Perucica  0 0 115.06       0       0       0       0       2     -96       6     -39     0       0       0       0 H
0LASTV51 Lastva       0 0 106.96 .443865 .115791       0       0       0       0       0       0     0       0       0       0  
0MOZUR51 VE Mozura    0 2    112       0    6.84   -0.36     -15       0     -48       0     -15     0       0       0       0 W
0VRANI5K Vranici KT   0 0 112.15       0       0       0       0       0       0       0       0     0       0       0       0  
0BUDVA52 0BUDVA52     0 0 111.52       0       0       0       0       0       0       0       0     0       0       0       0  
0HNOVI52 0HNOVI52     0 0 106.36 9.32116 1.34124       0       0       0       0       0       0     0       0       0       0  
##ZXX
XBI_NI51 XBI_NI51     1 0 113.51 -4.6912 .782244       0       0       0       0       0       0     0       0       0       0  
XRI_PE11 XRI_PE11     1 0 403.95 155.101 54.9737       0       0       0       0       0       0     0       0       0       0  
XTR_HN51 XTR_HN51     1 0 107.05 -19.212 -2.3946       0       0       0       0       0       0     0       0       0       0  
XSA_PI21 XSA_PI21     1 0 238.44 19.7915 -2.6293       0       0       0       0       0       0     0       0       0       0  
XVD_PO21 XVD_PO21     1 0    220       0       0       0       0       0       0       0       0     0       0       0       0  
XKA_PG11 XKA_PG11     1 0 400.35 227.417 48.5761       0       0       0       0       0       0     0       0       0       0  
XTR_PE21 XTR_PE21     1 0 241.92  -60.26 -35.406       0       0       0       0       0       0     0       0       0       0  
XPL_BB21 XPL_BB21     1 0 234.53 5.60767 30.5191       0       0       0       0       0       0     0       0       0       0  
XPL_ZA51 XPL_ZA51     1 0 113.53 14.6449 -10.447       0       0       0       0       0       0     0       0       0       0  
XPL_BI21 XPL_BI21     1 0 235.09 70.5333 50.6401       0       0       0       0       0       0     0       0       0       0  
XTR_LA11 XTR_LA11     1 0 403.67 96.0675  -68.86       0       0       0       0       0       0     0       0       0       0  
XKO_LA11 XKO_LA11     1 0 401.07    -600   118.7       0       0       0       0       0       0     0       0       0       0  
XKO_LA12 XKO_LA12     1 0 401.07       0    84.4       0       0       0       0       0       0     0       0       0       0  
##L
XBI_NI51 0VILUS5K 1 1  1.418  3.512 28.67799    460             
0PODG211 0PODG212 1 2      0      0        0   1920             
0RIBAR11 0PLJE211 1 0  1.616 18.688  184.731   1920             
0RIBAR11 0PODG212 1 0  2.512 29.232  288.894   1920             
0MOJKO21 0TPLJE21 1 0  6.481 35.313 210.5989    720             
0PODG121 0HPERU21 1 0   2.73 14.868 88.65699    720             
0PODG121 0MOJKO21 1 0  5.818 31.697 189.0079    720             
0TPLJE21 0HPIVA22 1 8  2.889 21.267  132.975   1000             
0TPLJE21 0HPIVA22 2 0  2.875  21.18  132.438   1000             
0HPIVA21 0HPIVA22 1 2      0      0        0   1000             
0BERAN51 0ANDRI51 1 0  3.436  7.464   48.678    480             
0RIBAR51 0BERAN51 1 0  4.051  8.799   57.355    480             
0RIBAR51 0MOJKO51 1 0  2.687  5.838 38.09899    480             
0BUDVA52 0BAR  51 1 0  6.413 13.928 90.82598    480             
0BUDVA52 0CETIN51 1 0  2.399  5.213 33.96699    480             
0BUDVA52 0PODG252 1 0   6.72 14.595   95.207    550             
0CETIN51 0PODG252 1 0  3.824 12.671   90.083    700             
0DANIL51 0PODG151 1 0   3.38  7.339   47.851    480             
0ETREB51 0ANDRI51 1 0  5.913 12.844   83.802    480             
0HNOVI52 0TIVAT51 1 0  3.975  8.632 56.28099    470             
0HPERU51 0DANIL51 1 0  3.283  7.131 46.52899    480             
0HPERU51 0NIKSI51 1 0  1.549  4.621    38.43    480             
0HPERU51 0NIKSI51 2 0  1.549  4.621    38.43    480             
0HPERU51 0NIKSI51 3 0  1.549  4.621    38.43    480             
0HPERU51 0PODG151 1 0  3.945 11.768 97.76899    720             
0HPERU51 0PODG151 2 0  3.945 11.768 97.76899    720             
0KAP  51 0KAP  5T 1 8  0.005  0.051    0.331   1200             
0KAP  51 0PODG251 2 8  0.485  2.528   29.174   1200             
0KAP  51 0PODG252 3 0  0.485  2.528   29.174   1200             
0KAP  5T 0PODG252 1 0   0.48  2.502   28.843   1200             
0KAP  5T 0PODG551 1 0  0.484  1.444   11.983   1200             
0NIKSI51 0NIKSZ52 1 0  0.006  0.055    0.165    640             
0KRNOV51 0BREZN51 1 0  2.662  8.822   75.232    640             
0KRNOV51 0BREZN51 2 0  2.662  8.822   75.232    640             
0BREZN51 0NIKS251 1 0  2.904  9.624 81.76499    640             
0NIKS251 0NIKSI51 1 0 0.1628 0.4302 314.1593    740             
0PLJEV51 0PLJE251 1 0  0.537  1.168    7.603    630             
0PODG151 0ETREB51 1 8  6.931 15.054 98.18199    480             
0PODG151 0PODG251 1 0  0.351  1.833   21.157   1280             
0PODG151 0PODG252 2 0  0.357  1.865    21.57   1280             
0PODG151 0PODG351 1 0  0.472  1.563   11.074    720             
0PODG351 0PODG551 1 0 0.0411  0.107 282.7433    720             
0PODG451 0PODG251 1 0  0.424  1.404       10    480             
0ROZAJ51 0BERAN51 1 8  4.748 10.313   67.273    480             
0TIVAT51 0KOTOR51 1 0  0.605  2.005    16.95    480             
0VILUS51 0VILUS5K 1 0  0.096  0.208    1.322    460             
0VILUS5K 0NIKSI51 1 0  5.572 13.091  123.388    460             
0VIRPA51 0BAR  51 1 0  3.283  7.131 46.52899    500             
0VIRPA51 0PODG251 1 0   5.51 11.968 78.09899    520             
XPL_ZA51 0PLJEV51 1 1  3.485  7.658   48.998    460             
XKA_PG11 0PODG211 1 1  2.282 24.341    278.5   1920             
XRI_PE11 0RIBAR11 1 1  1.199 13.583   134.55   1920             
XPL_BB21 0TPLJE21 1 1  3.896 20.606  126.455   1020             
XVD_PO21 0PODG121 1 9  1.514  7.792   52.688    720             
XTR_LA11 0LASTV11 1 0  1.523 14.674 157.0431   1920             
XTR_PE21 0HPERU21 1 1   2.39 13.028 77.72699    790             
XSA_PI21 0HPIVA21 1 1  1.786 17.997  150.455    790             
XTR_HN51 0HNOVI51 1 1  2.957  6.422   41.901    470             
XPL_BI21 0TPLJE21 1 1  1.385  7.069  40.8899    729             
0HPERU51 0HPERU52 1 7      0      0        0    800             
0BAR  51 0MOZUR51 1 0   3.57   7.76   50.599    480             
0LASTV11 0PODG211 1 0  1.505 14.499  155.173   1920             
0LASTV51 0TIVAT51 1 0  2.304 5.0041 32.64463    470             
0BUDVA51 0LASTV51 1 0  1.344 2.9191 19.00826    470             
0MOZUR51 0ULCIN51 1 0   0.98   2.13     13.9    480             
0PODG251 0PODG252 1 2      0      0        0    700             
XKO_LA11 0LASTV11 1 1  0.005  0.055  0.50587   1920             
XKO_LA12 0LASTV11 2 1  0.005  0.055  0.50587   1920             
0PODG151 0VRANI5K 1 0 0.5187 1.1154        7    480             
0VRANI5K 0PODG451 1 0 0.1087 0.2872      210    480             
0BUDVA51 0BUDVA52 1 7      0      0        0    700             
0HNOVI51 0HNOVI52 1 2      0      0        0    700             
##T
0RIBAR51 0RIBAR11 1 0   115   400   150   .091 10.779        0      0    753             
0HPERU52 0HPERU21 1 0   110   220   125 .23239 9.7742        0      0    628             
0MOJKO51 0MOJKO21 1 0   115   220   150 .24034 10.232        0      0    753             
0PLJE251 0TPLJE21 1 0   115   220   125 .27087 12.045        0      0    628             
0PODG151 0PODG121 1 0   115   220   150 .25432 10.696        0      0    753             
0PODG151 0PODG121 2 0   115   220   150 .26593  9.505        0      0    753             
0PODG251 0PODG211 1 8   115   400   300   .091  5.399        0      0   1506             
0PODG252 0PODG212 2 0   115   400   300   .091  5.399        0      0   1506             
0TPLJE21 0PLJE211 1 0   231   400   400  0.198 15.914        0      0   1000             
0TPLJE21 0PLJE211 2 0   231   400   400  0.205  15.74        0      0   1000             
0LASTV51 0LASTV11 1 8   115   400   300   .091  5.399        0      0   1506             
0LASTV51 0LASTV11 2 0   115   400   300   .091  5.399        0      0   1506             
##R
0RIBAR51 0RIBAR11 1 0.125  9   5                                
0HPERU52 0HPERU21 1     2  6   2                                
0MOJKO51 0MOJKO21 1  1.25 12   6                                
0PLJE251 0TPLJE21 1     2  6   5                                
0PODG151 0PODG121 1  1.25 12   6                                
0PODG151 0PODG121 2  1.25 12   6                                
0PODG251 0PODG211 1  1.25  8   5                                
0PODG252 0PODG212 2  1.25  8   5                                
0TPLJE21 0PLJE211 1     5  1   0                                
0TPLJE21 0PLJE211 2     5  1   0                                
0LASTV51 0LASTV11 1  1.25  8   6                                
0LASTV51 0LASTV11 2  1.25  8   6                                
##TT
##E
